k23/sourcebus_22000.trafo_75612682_75612682/Lines.dss
New Line.line_75607727_3097927_3097172 Units=km Length=0.019 bus1=3097172.1.3 bus2=3097927.1.3 switch=n enabled=y phases=2 Linecode=2P_Code6
New Line.line_75607909_3098921_3097349 Units=km Length=0.01760000038146973 bus1=3097349.1.2.3 bus2=3098921.1.2.3 switch=n enabled=y phases=3 Linecode=3P_Code2
New Line.line_75607922_3097752_3097362 Units=km Length=0.03179999923706055 bus1=3097362.1.2.3 bus2=3097752.1.2.3 switch=n enabled=y phases=3 Linecode=3P_OH_Code0
New Line.line_75607982_3097575_3097416 Units=km Length=0.037799999237060546 bus1=3097416.1.2.3 bus2=3097575.1.2.3 switch=n enabled=y phases=3 Linecode=3P_OH_Code8
New Line.line_75608170_3097362_3097575 Units=km Length=0.020100000381469727 bus1=3097575.1.2.3 bus2=3097362.1.2.3 switch=n enabled=y phases=3 Linecode=3P_OH_Code0
New Line.line_75608171_3097752_3097576 Units=km Length=0.027399999618530273 bus1=3097576.1.2.3 bus2=3097752.1.2.3 switch=n enabled=y phases=3 Linecode=3P_OH_Code0
New Line.line_75608199_3098311_3097601 Units=km Length=0.009399999618530273 bus1=3097601.1.2.3 bus2=3098311.1.2.3 switch=n enabled=y phases=3 Linecode=3P_OH_Code0
New Line.line_75608226_3098486_3097622 Units=km Length=0.017100000381469728 bus1=3097622.1.2.3 bus2=3098486.1.2.3 switch=n enabled=y phases=3 Linecode=3P_OH_Code0
New Line.line_75608255_3098486_3097647 Units=km Length=0.039099998474121093 bus1=3097647.1.2.3 bus2=3098486.1.2.3 switch=n enabled=y phases=3 Linecode=3P_OH_Code0
New Line.line_75608425_3099080_3097416 Units=km Length=0.015399999618530273 bus1=3097416.1.2.3 bus2=3099080.1.2.3 switch=n enabled=y phases=3 Linecode=3P_Code2
New Line.line_75608467_3099116_3097752 Units=km Length=0.010399999618530274 bus1=3097752.1.2.3 bus2=3099116.1.2.3 switch=n enabled=y phases=3 Linecode=3P_Code2
New Line.line_75608468_3099117_3097753 Units=km Length=0.022200000762939452 bus1=3097753.1.2.3 bus2=3099117.1.2.3 switch=n enabled=y phases=3 Linecode=3P_Code2
New Line.line_75608499_3099144_3097769 Units=km Length=0.019700000762939453 bus1=3097769.1.2.3 bus2=3099144.1.2.3 switch=n enabled=y phases=3 Linecode=3P_Code2
New Line.line_75608535_3099176_3097647 Units=km Length=0.015699999809265137 bus1=3097647.1.2.3 bus2=3099176.1.2.3 switch=n enabled=y phases=3 Linecode=3P_Code2
New Line.line_75608536_3099176_3097647 Units=km Length=0.015699999809265137 bus1=3097647.1.2.3 bus2=3099176.1.2.3 switch=n enabled=y phases=3 Linecode=3P_Code2
New Line.line_75608543_3099182_3097788 Units=km Length=0.011899999618530274 bus1=3097788.1.2.3 bus2=3099182.1.2.3 switch=n enabled=y phases=3 Linecode=3P_Code2
New Line.line_75608544_3099183_3097788 Units=km Length=0.014800000190734864 bus1=3097788.1.2.3 bus2=3099183.1.2.3 switch=n enabled=y phases=3 Linecode=3P_Code2
New Line.line_75608695_3099319_3097788 Units=km Length=0.020799999237060548 bus1=3097788.1.2.3 bus2=3099319.1.2.3 switch=n enabled=y phases=3 Linecode=3P_Code2
New Line.line_75608839_3099449_3097927 Units=km Length=0.022899999618530273 bus1=3097927.1.2.3 bus2=3099449.1.2.3 switch=n enabled=y phases=3 Linecode=3P_Code2
New Line.line_75608917_3099520_3097969 Units=km Length=0.013300000190734863 bus1=3097969.1.2.3 bus2=3099520.1.2.3 switch=n enabled=y phases=3 Linecode=3P_Code2
New Line.line_75608955_3099556_3097988 Units=km Length=0.0145 bus1=3097988.1.2.3 bus2=3099556.1.2.3 switch=n enabled=y phases=3 Linecode=3P_Code2
New Line.line_75608979_3099578_3097349 Units=km Length=0.009899999618530273 bus1=3097349.1.2.3 bus2=3099578.1.2.3 switch=n enabled=y phases=3 Linecode=3P_Code2
New Line.line_75609124_3099703_3097753 Units=km Length=0.016 bus1=3097753.1.2.3 bus2=3099703.1.2.3 switch=n enabled=y phases=3 Linecode=3P_Code2
New Line.line_75609227_3099793_3097647 Units=km Length=0.021500000000000002 bus1=3097647.1.2.3 bus2=3099793.1.2.3 switch=n enabled=y phases=3 Linecode=3P_Code2
New Line.line_75609278_3099840_3098115 Units=km Length=0.029 bus1=3098115.1.2.3 bus2=3099840.1.2.3 switch=n enabled=y phases=3 Linecode=3P_Code2
New Line.line_75609288_3099848_3097349 Units=km Length=0.0050999999046325685 bus1=3097349.1.2.3 bus2=3099848.1.2.3 switch=n enabled=y phases=3 Linecode=3P_Code2
New Line.line_75609370_3099927_3097927 Units=km Length=0.02129999923706055 bus1=3097927.1.2.3 bus2=3099927.1.2.3 switch=n enabled=y phases=3 Linecode=3P_Code2
New Line.line_75609371_3099928_3097927 Units=km Length=0.027 bus1=3097927.1.2.3 bus2=3099928.1.2.3 switch=n enabled=y phases=3 Linecode=3P_Code2
New Line.line_75609486_3100022_3097769 Units=km Length=0.027299999237060547 bus1=3097769.1.2.3 bus2=3100022.1.2.3 switch=n enabled=y phases=3 Linecode=3P_Code2
New Line.line_75609487_3100022_3097769 Units=km Length=0.027299999237060547 bus1=3097769.1.2.3 bus2=3100022.1.2.3 switch=n enabled=y phases=3 Linecode=3P_Code2
New Line.line_75609532_3100052_3097788 Units=km Length=0.01760000038146973 bus1=3097788.1.2.3 bus2=3100052.1.2.3 switch=n enabled=y phases=3 Linecode=3P_Code2
New Line.line_75609622_3097576_3097969 Units=km Length=0.027600000381469727 bus1=3097969.1.2.3 bus2=3097576.1.2.3 switch=n enabled=y phases=3 Linecode=3P_OH_Code0
New Line.line_75609701_3100154_3098115 Units=km Length=0.026700000762939453 bus1=3098115.1.2.3 bus2=3100154.1.2.3 switch=n enabled=y phases=3 Linecode=3P_Code2
New Line.line_75609768_3100191_3097788 Units=km Length=0.0195 bus1=3097788.1.2.3 bus2=3100191.1.2.3 switch=n enabled=y phases=3 Linecode=3P_Code2
New Line.line_75609783_3100202_3097969 Units=km Length=0.021899999618530275 bus1=3097969.1.2.3 bus2=3100202.1.2.3 switch=n enabled=y phases=3 Linecode=3P_Code2
New Line.line_75609848_3097988_3098311 Units=km Length=0.03820000076293945 bus1=3098311.1.2.3 bus2=3097988.1.2.3 switch=n enabled=y phases=3 Linecode=3P_OH_Code0
New Line.line_75610004_3097788_3097988 Units=km Length=0.03479999923706055 bus1=3097988.1.2.3 bus2=3097788.1.2.3 switch=n enabled=y phases=3 Linecode=3P_OH_Code0
New Line.line_75610046_3097622_3097769 Units=km Length=0.05 bus1=3097769.1.2.3 bus2=3097622.1.2.3 switch=n enabled=y phases=3 Linecode=3P_OH_Code0
New Line.line_75610070_3097349_3097927 Units=km Length=0.03870000076293945 bus1=3097927.1.2.3 bus2=3097349.1.2.3 switch=n enabled=y phases=3 Linecode=3P_OH_Code3
New Line.line_75610074_3097969_3098311 Units=km Length=0.004300000190734864 bus1=3098311.1.2.3 bus2=3097969.1.2.3 switch=n enabled=y phases=3 Linecode=3P_OH_Code0
New Line.line_75610142_3100343_3097988 Units=km Length=0.011800000190734863 bus1=3097988.1.2.3 bus2=3100343.1.2.3 switch=n enabled=y phases=3 Linecode=3P_Code2
New Line.line_75610149_3100350_3097416 Units=km Length=0.019799999237060547 bus1=3097416.1.2.3 bus2=3100350.1.2.3 switch=n enabled=y phases=3 Linecode=3P_Code2
New Line.line_75610292_3098646_3098437 Units=km Length=0.023299999237060547 bus1=3098437.1.2.3 bus2=3098646.1.2.3 switch=n enabled=y phases=3 Linecode=3P_OH_Code3
New Line.line_75610379_3098437_3097752 Units=km Length=0.0565 bus1=3097752.1.2.3 bus2=3098437.1.2.3 switch=n enabled=y phases=3 Linecode=3P_OH_Code3
New Line.line_75610450_3100553_3097753 Units=km Length=0.016600000381469728 bus1=3097753.1.2.3 bus2=3100553.1.2.3 switch=n enabled=y phases=3 Linecode=3P_Code2
New Line.line_75610511_3100591_3098486 Units=km Length=0.008899999618530274 bus1=3098486.1.2.3 bus2=3100591.1.2.3 switch=n enabled=y phases=3 Linecode=3P_Code2
New Line.line_75610512_3100591_3098486 Units=km Length=0.008899999618530274 bus1=3098486.1.2.3 bus2=3100591.1.2.3 switch=n enabled=y phases=3 Linecode=3P_Code2
New Line.line_75610527_3100603_3098115 Units=km Length=0.015100000381469726 bus1=3098115.1.2.3 bus2=3100603.1.2.3 switch=n enabled=y phases=3 Linecode=3P_Code2
New Line.line_75610574_3100641_3097788 Units=km Length=0.02 bus1=3097788.1.2.3 bus2=3100641.1.2.3 switch=n enabled=y phases=3 Linecode=3P_Code2
New Line.line_75610698_3100739_3097927 Units=km Length=0.015800000190734863 bus1=3097927.1.2.3 bus2=3100739.1.2.3 switch=n enabled=y phases=3 Linecode=3P_Code2
New Line.line_75611108_3101004_3097988 Units=km Length=0.009800000190734863 bus1=3097988.1.2.3 bus2=3101004.1.2.3 switch=n enabled=y phases=3 Linecode=3P_Code2
New Line.line_75611362_3101167_3097752 Units=km Length=0.009000000000000001 bus1=3097752.1.2.3 bus2=3101167.1.2.3 switch=n enabled=y phases=3 Linecode=3P_Code2
New Line.line_75611381_3101178_3097575 Units=km Length=0.0205 bus1=3097575.1.2.3 bus2=3101178.1.2.3 switch=n enabled=y phases=3 Linecode=3P_OH_Code0
New Line.line_75611384_3101181_3098646 Units=km Length=0.012600000381469727 bus1=3098646.1.2.3 bus2=3101181.1.2.3 switch=n enabled=y phases=3 Linecode=3P_Code2
New Line.line_75611405_3101192_3098646 Units=km Length=0.021399999618530275 bus1=3098646.1.2.3 bus2=3101192.1.2.3 switch=n enabled=y phases=3 Linecode=3P_Code2
New Line.line_75611446_3101212_3097769 Units=km Length=0.009399999618530273 bus1=3097769.1.2.3 bus2=3101212.1.2.3 switch=n enabled=y phases=3 Linecode=3P_Code2
New Line.line_75611468_3097575_3097647 Units=km Length=0.037 bus1=3097647.1.2.3 bus2=3097575.1.2.3 switch=n enabled=y phases=3 Linecode=3P_OH_Code0
New Line.line_75611521_3097753_3097788 Units=km Length=0.04290000152587891 bus1=3097788.1.2.3 bus2=3097753.1.2.3 switch=n enabled=y phases=3 Linecode=3P_OH_Code0
New Line.line_75611554_3101277_3098115 Units=km Length=0.011199999809265136 bus1=3098115.1.2.3 bus2=3101277.1.2.3 switch=n enabled=y phases=3 Linecode=3P_Code2
New Line.line_75611733_3101372_3098646 Units=km Length=0.012100000381469727 bus1=3098646.1.2.3 bus2=3101372.1.2.3 switch=n enabled=y phases=3 Linecode=3P_Code2
New Line.line_75611904_3097753_3098732 Units=km Length=0.008300000190734864 bus1=3098732.2 bus2=3097753.2 switch=n enabled=y phases=1 Linecode=1P_Code5
New Line.line_75611989_3101523_3097172 Units=km Length=0.012300000190734864 bus1=3097172.1.3 bus2=3101523.1.3 switch=n enabled=y phases=2 Linecode=2P_Code6
New Line.line_75612028_3101542_3097753 Units=km Length=0.014100000381469727 bus1=3097753.1.2.3 bus2=3101542.1.2.3 switch=n enabled=y phases=3 Linecode=3P_Code2
New Line.line_75612079_3101569_3097349 Units=km Length=0.023 bus1=3097349.1.2.3 bus2=3101569.1.2.3 switch=n enabled=y phases=3 Linecode=3P_Code2
New Line.line_75612335_3101718_3097576 Units=km Length=0.01 bus1=3097576.1.2.3 bus2=3101718.1.2.3 switch=n enabled=y phases=3 Linecode=3P_OH_Code0
New Line.line_75612352_3101727_3098115 Units=km Length=0.022700000762939453 bus1=3098115.1.2.3 bus2=3101727.1.2.3 switch=n enabled=y phases=3 Linecode=3P_Code2
New Line.line_75612365_3097927_3098646 Units=km Length=0.036299999237060544 bus1=3098646.1.2.3 bus2=3097927.1.2.3 switch=n enabled=y phases=3 Linecode=3P_OH_Code3
New Line.line_75612403_3101760_3097927 Units=km Length=0.009899999618530273 bus1=3097927.1.2.3 bus2=3101760.1.2.3 switch=n enabled=y phases=3 Linecode=3P_Code2
New Line.line_75612411_3098115_3097349 Units=km Length=0.036900001525878905 bus1=3097349.1.2.3 bus2=3098115.1.2.3 switch=n enabled=y phases=3 Linecode=3P_OH_Code3
New Line.line_75612547_3101818_3097362 Units=km Length=0.013399999618530273 bus1=3097362.2 bus2=3101818.2 switch=n enabled=y phases=1 Linecode=1P_OH_Code1
New Line.line_75623100_3102507_3097601 Units=km Length=0.017654832121974537 bus1=3097601.2 bus2=3102507.2 switch=n enabled=y phases=1 Linecode=1P_Code4
New Line.line_75623101_3102508_3100202 Units=km Length=0.011458840977763547 bus1=3100202.1 bus2=3102508.1 switch=n enabled=y phases=1 Linecode=1P_Code4
New Line.line_75623102_3102509_3101167 Units=km Length=0.005348422530106471 bus1=3101167.1 bus2=3102509.1 switch=n enabled=y phases=1 Linecode=1P_Code4
New Line.line_75623103_3102510_3101718 Units=km Length=0.012229877966280925 bus1=3101718.3 bus2=3102510.3 switch=n enabled=y phases=1 Linecode=1P_Code4
New Line.line_75623104_3102511_3099556 Units=km Length=0.019300957193084438 bus1=3099556.3 bus2=3102511.3 switch=n enabled=y phases=1 Linecode=1P_Code4
New Line.line_75623225_3102632_3097622 Units=km Length=0.022105661430356017 bus1=3097622.2 bus2=3102632.2 switch=n enabled=y phases=1 Linecode=1P_Code4
New Line.line_75623226_3102633_3097622 Units=km Length=0.022105661430356017 bus1=3097622.3 bus2=3102633.3 switch=n enabled=y phases=1 Linecode=1P_Code4
New Line.line_75623227_3102634_3097622 Units=km Length=0.022105661430356017 bus1=3097622.3 bus2=3102634.3 switch=n enabled=y phases=1 Linecode=1P_Code4
New Line.line_75623228_3102635_3097622 Units=km Length=0.022105661430356017 bus1=3097622.1 bus2=3102635.1 switch=n enabled=y phases=1 Linecode=1P_Code4
New Line.line_75623229_3102636_3097622 Units=km Length=0.022105661430356017 bus1=3097622.3 bus2=3102636.3 switch=n enabled=y phases=1 Linecode=1P_Code4
New Line.line_75623230_3102637_3097622 Units=km Length=0.022105661430356017 bus1=3097622.1 bus2=3102637.1 switch=n enabled=y phases=1 Linecode=1P_Code4
New Line.line_75623231_3102638_3097622 Units=km Length=0.036539012934242845 bus1=3097622.2 bus2=3102638.2 switch=n enabled=y phases=1 Linecode=1P_Code4
New Line.line_75623232_3102639_3097622 Units=km Length=0.036539012934242845 bus1=3097622.3 bus2=3102639.3 switch=n enabled=y phases=1 Linecode=1P_Code4
New Line.line_75623233_3102640_3097622 Units=km Length=0.036539012934242845 bus1=3097622.3 bus2=3102640.3 switch=n enabled=y phases=1 Linecode=1P_Code4
New Line.line_75623234_3102641_3097622 Units=km Length=0.022105661430356017 bus1=3097622.1 bus2=3102641.1 switch=n enabled=y phases=1 Linecode=1P_Code4
New Line.line_75623241_3102648_3099176 Units=km Length=0.003766419262594291 bus1=3099176.3 bus2=3102648.3 switch=n enabled=y phases=1 Linecode=1P_Code4
New Line.line_75623242_3102649_3100591 Units=km Length=0.003723399010605694 bus1=3100591.3 bus2=3102649.3 switch=n enabled=y phases=1 Linecode=1P_Code4
New Line.line_75623245_3102652_3099520 Units=km Length=0.0039275127309470635 bus1=3099520.1 bus2=3102652.1 switch=n enabled=y phases=1 Linecode=1P_Code4
New Line.line_75623246_3102653_3101542 Units=km Length=0.01764587254854007 bus1=3101542.2 bus2=3102653.2 switch=n enabled=y phases=1 Linecode=1P_Code4
New Line.line_75623249_3102656_3099840 Units=km Length=0.017899133561522607 bus1=3099840.1.2.3 bus2=3102656.1.2.3 switch=n enabled=y phases=3 Linecode=3P_Code7
New Line.line_75623250_3102657_3101727 Units=km Length=0.013052756768160442 bus1=3101727.2 bus2=3102657.2 switch=n enabled=y phases=1 Linecode=1P_Code4
New Line.line_75623325_3102732_3099116 Units=km Length=0.00922985353388317 bus1=3099116.3 bus2=3102732.3 switch=n enabled=y phases=1 Linecode=1P_Code4
New Line.line_75623472_3102879_3101727 Units=km Length=0.039439372728544565 bus1=3101727.3 bus2=3102879.3 switch=n enabled=y phases=1 Linecode=1P_Code4
New Line.line_75623481_3102888_3101727 Units=km Length=0.039439372728544565 bus1=3101727.3 bus2=3102888.3 switch=n enabled=y phases=1 Linecode=1P_Code4
New Line.line_75623482_3102889_3101727 Units=km Length=0.039439372728544565 bus1=3101727.3 bus2=3102889.3 switch=n enabled=y phases=1 Linecode=1P_Code4
New Line.line_75623497_3102904_3100022 Units=km Length=0.0034672216543612517 bus1=3100022.3 bus2=3102904.3 switch=n enabled=y phases=1 Linecode=1P_Code4
New Line.line_75623778_3103185_3101167 Units=km Length=0.005348422530106471 bus1=3101167.2 bus2=3103185.2 switch=n enabled=y phases=1 Linecode=1P_Code4
